Circuit: * C:\Users\vince\OneDrive\Documents\3e\PGA\git\LoRaSnow\0100_Research\0130_Simulations\NTC_Dev.asc

Direct Newton iteration failed to find .op point.  (Use ".option noopiter" to skip.)
Starting Gmin stepping
Gmin = 10
Gmin = 1.07374
Gmin = 0.115292
Gmin = 0.0123794
Gmin = 0.00132923
Gmin = 0.000142725
Gmin = 1.5325e-005
Gmin = 1.6455e-006
Gmin = 1.76685e-007
Gmin = 1.89714e-008
Gmin = 2.03704e-009
Gmin = 2.18725e-010
Gmin = 2.34854e-011
Gmin = 2.52173e-012
Gmin = 2.70769e-013
Gmin = 0
Gmin stepping succeeded in finding the operating point.

.step ntc=480000
.step ntc=530000
.step ntc=580000
.step ntc=630000
.step ntc=680000
.step ntc=730000
.step ntc=780000
.step ntc=830000
.step ntc=880000
.step ntc=930000
.step ntc=980000
.step ntc=1.03e+006
.step ntc=1.08e+006
.step ntc=1.13e+006
.step ntc=1.18e+006
.step ntc=1.23e+006
.step ntc=1.28e+006
.step ntc=1.33e+006
.step ntc=1.38e+006
.step ntc=1.43e+006
.step ntc=1.48e+006
.step ntc=1.53e+006
.step ntc=1.58e+006
.step ntc=1.63e+006
.step ntc=1.68e+006
.step ntc=1.73e+006
.step ntc=1.78e+006
.step ntc=1.83e+006
.step ntc=1.88e+006
.step ntc=1.93e+006
.step ntc=1.98e+006
.step ntc=2e+006

Date: Wed Nov 24 14:39:03 2021
Total elapsed time: 2.510 seconds.

tnom = 27
temp = 27
method = modified trap
totiter = 9765
traniter = 2076
tranpoints = 1039
accept = 1039
rejected = 3
matrix size = 6
fillins = 0
solver = Normal
Matrix Compiler1: 218 bytes object code size  0.1/0.1/[0.1]
Matrix Compiler2: off  [0.1]/0.1/0.1

